# M3: TSN switch realism. Reuses the Nominal multi-hop topology (nominal.ned)
# but gives every switch port a *finite, real-dropping* egress queue and adds
# background UDP data traffic from one client per zone converging on
# coreClient through the single swCore<->coreClient 100Mbps link -- a
# guaranteed, moderate oversubscription (3 x ~50Mbps senders on one 100Mbps
# link) so drops are real, not contrived.
#
# INET's default queue (PacketQueue) is UNBOUNDED and raises an error if a
# capacity is set without a drop policy. DropTailQueue is the confirmed real
# idiom (inet/src/inet/queueing/queue/DropTailQueue.ned): packetCapacity with
# PacketAtCollectionEndDropper already wired in.

[General]
network = Nominal
sim-time-limit = 60s

*.*.hasTimeSynchronization = true

# --- Independent clocks: every node (including switches) drifts differently ---
**.clock.oscillator.typename = "ConstantDriftOscillator"
*.gm.clock.oscillator.driftRate = 0ppm
*.swCore.clock.oscillator.driftRate = 50ppm
*.swA.clock.oscillator.driftRate = 80ppm
*.swB.clock.oscillator.driftRate = -60ppm
*.swC.clock.oscillator.driftRate = 100ppm
*.coreClient.clock.oscillator.driftRate = 150ppm
*.clientsA[*].clock.oscillator.driftRate = uniform(-200ppm, 200ppm)
*.clientsB[*].clock.oscillator.driftRate = uniform(-200ppm, 200ppm)
*.clientsC[*].clock.oscillator.driftRate = uniform(-200ppm, 200ppm)

# --- gPTP roles: master ports declared; every unlisted port is a slave ---
*.gm.gptp.masterPorts = ["eth0"]
*.swCore.gptp.masterPorts = ["eth1", "eth2", "eth3", "eth4"]
*.swA.gptp.masterPorts = ["eth1", "eth2", "eth3", "eth4"]
*.swB.gptp.masterPorts = ["eth1", "eth2", "eth3", "eth4"]
*.swC.gptp.masterPorts = ["eth1", "eth2", "eth3", "eth4"]

*.*.eth[*].bitrate = 100Mbps

# --- Measurement ---
**.referenceClock = "gm.clock"
**.clock.timeChanged.result-recording-modes = +vector
**.vector-recording = true

# --- M3: finite, real-dropping egress queues on every switch port ---
*.sw*.eth[*].macLayer.queue.typename = "DropTailQueue"
*.sw*.eth[*].macLayer.queue.packetCapacity = 10

# --- M3: background UDP data traffic converging on coreClient ---
# One sender per zone: 3 senders x ~50Mbps = ~150Mbps offered against the
# single 100Mbps swCore<->coreClient link -- guaranteed oversubscription.
*.clientsA[0].numApps = 1
*.clientsA[0].app[0].typename = "UdpSourceApp"
*.clientsA[0].app[0].io.destAddress = "coreClient"
*.clientsA[0].app[0].io.destPort = 2000
*.clientsA[0].app[0].source.packetLength = 1000B - 54B
*.clientsA[0].app[0].source.productionInterval = exponential(160us)

*.clientsB[0].numApps = 1
*.clientsB[0].app[0].typename = "UdpSourceApp"
*.clientsB[0].app[0].io.destAddress = "coreClient"
*.clientsB[0].app[0].io.destPort = 2001
*.clientsB[0].app[0].source.packetLength = 1000B - 54B
*.clientsB[0].app[0].source.productionInterval = exponential(160us)

*.clientsC[0].numApps = 1
*.clientsC[0].app[0].typename = "UdpSourceApp"
*.clientsC[0].app[0].io.destAddress = "coreClient"
*.clientsC[0].app[0].io.destPort = 2002
*.clientsC[0].app[0].source.packetLength = 1000B - 54B
*.clientsC[0].app[0].source.productionInterval = exponential(160us)

*.coreClient.numApps = 3
*.coreClient.app[0].typename = "UdpSinkApp"
*.coreClient.app[0].io.localPort = 2000
*.coreClient.app[1].typename = "UdpSinkApp"
*.coreClient.app[1].io.localPort = 2001
*.coreClient.app[2].typename = "UdpSinkApp"
*.coreClient.app[2].io.localPort = 2002
