# M2: multi-hop gPTP topology. Validates hop-by-hop peer-delay + residence-time
# propagation (IEEE 802.1AS transparent/boundary-clock behavior) by comparing
# sync error at two hop depths from the GM: coreClient (2 hops) vs the zone
# clients (3 hops). Reuses everything M1 proved: no NED package, gptp.masterPorts
# for role assignment, ConstantDriftOscillator per node, absolute result-dir
# (handled in run.sh).

[General]
network = Nominal
sim-time-limit = 60s

*.*.hasTimeSynchronization = true

# --- Independent clocks: every node (including switches) drifts differently ---
**.clock.oscillator.typename = "ConstantDriftOscillator"
*.gm.clock.oscillator.driftRate = 0ppm
*.swCore.clock.oscillator.driftRate = 50ppm
*.swA.clock.oscillator.driftRate = 80ppm
*.swB.clock.oscillator.driftRate = -60ppm
*.swC.clock.oscillator.driftRate = 100ppm
*.coreClient.clock.oscillator.driftRate = 150ppm
*.clientsA[*].clock.oscillator.driftRate = uniform(-200ppm, 200ppm)
*.clientsB[*].clock.oscillator.driftRate = uniform(-200ppm, 200ppm)
*.clientsC[*].clock.oscillator.driftRate = uniform(-200ppm, 200ppm)

# --- gPTP roles: master ports declared; every unlisted port is a slave ---
*.gm.gptp.masterPorts = ["eth0"]
*.swCore.gptp.masterPorts = ["eth1", "eth2", "eth3", "eth4"]
*.swA.gptp.masterPorts = ["eth1", "eth2", "eth3", "eth4"]
*.swB.gptp.masterPorts = ["eth1", "eth2", "eth3", "eth4"]
*.swC.gptp.masterPorts = ["eth1", "eth2", "eth3", "eth4"]
# coreClient, clientsA/B/C[*]: no master ports -> pure slaves (default)

# --- Link speed (uniform for M2; differentiated rates are an M3 concern) ---
*.*.eth[*].bitrate = 100Mbps

# --- Measurement ---
**.referenceClock = "gm.clock"
**.clock.timeChanged.result-recording-modes = +vector
**.vector-recording = true
