# Optional pcap(ng) packet capture, opt-in only: reuses M3's congestion topology
# (real background UDP traffic converging on coreClient) but turns on INET's
# built-in PcapRecorder (every TsnDevice/TsnSwitch/TsnClock already has a
# recordPcap/pcapRecorder[] slot via LinkLayerNodeBase -- no custom module
# needed) on coreClient's link, for packet-level debugging with Wireshark/
# tcpdump-compatible tooling. Not part of the M1-M5 CI gate and not wired into
# any scenario by default: the project's recording policy (congestion.ini)
# deliberately keeps data-plane traffic to aggregate scalars, and full packet
# capture of every run would reintroduce the exact artifact-bloat problem
# that policy exists to avoid. Run this explicitly when packet-level
# inspection is actually needed.
#
# sim-time-limit is deliberately very short (0.5s, not 60s) to keep the
# capture file small -- this is a debugging aid, not a scenario whose sync/
# congestion dynamics are being studied. First attempt at 5s produced a
# ~768MB pcapng from congestion.ini's 3 senders (~18.75k pkt/s combined
# converging on coreClient) -- exactly the artifact-bloat problem the
# recording policy exists to avoid, even though this is opt-in. snaplen
# additionally truncates each captured frame to headers-only: enough for
# Wireshark to show timing/addressing/protocol without the full payload.

[General]
include congestion.ini
sim-time-limit = 0.5s

# PcapRecorder serializes real frame bytes, but INET's default checksum mode
# is "declared" (a boolean valid/invalid flag, no bytes actually computed --
# faster for scenarios that don't need real capture). Recording requires the
# real bytes, so switch to "computed" for this run only.
**.fcsMode = "computed"
**.crcMode = "computed"

*.coreClient.recordPcap = true
*.coreClient.pcapRecorder[*].fileFormat = "pcapng"
*.coreClient.pcapRecorder[*].pcapFile = "${resultdir}/coreClient.pcapng"
*.coreClient.pcapRecorder[*].snaplen = 128
