# M5: queue-capacity parameter sweep. Reuses the Nominal topology and M3's
# proven traffic/recording setup (3 senders converging on coreClient's
# shared 100Mbps link) but sweeps packetCapacity across several values using
# OMNeT++'s native ${var=...} iteration syntax -- a single ini, one CI step,
# multiple runs, one comparison table. This is the concrete "lever" M5 is
# about: instead of hand-editing a number and re-running, the sweep IS the
# scenario. sim-time-limit is shorter (30s) and only 3 senders are used
# (not all 12) to keep total sweep cost reasonable across iterations.

[General]
network = Nominal
sim-time-limit = 30s

*.*.hasTimeSynchronization = true

# --- Independent clocks: every node (including switches) drifts differently ---
**.clock.oscillator.typename = "ConstantDriftOscillator"
*.gm.clock.oscillator.driftRate = 0ppm
*.swCore.clock.oscillator.driftRate = 50ppm
*.swA.clock.oscillator.driftRate = 80ppm
*.swB.clock.oscillator.driftRate = -60ppm
*.swC.clock.oscillator.driftRate = 100ppm
*.coreClient.clock.oscillator.driftRate = 150ppm
*.clientsA[*].clock.oscillator.driftRate = uniform(-200ppm, 200ppm)
*.clientsB[*].clock.oscillator.driftRate = uniform(-200ppm, 200ppm)
*.clientsC[*].clock.oscillator.driftRate = uniform(-200ppm, 200ppm)

# --- gPTP roles: master ports declared; every unlisted port is a slave ---
*.gm.gptp.masterPorts = ["eth0"]
*.swCore.gptp.masterPorts = ["eth1", "eth2", "eth3", "eth4"]
*.swA.gptp.masterPorts = ["eth1", "eth2", "eth3", "eth4"]
*.swB.gptp.masterPorts = ["eth1", "eth2", "eth3", "eth4"]
*.swC.gptp.masterPorts = ["eth1", "eth2", "eth3", "eth4"]

*.*.eth[*].bitrate = 100Mbps

# --- Measurement / recording policy (proven in M3/M4) ---
**.referenceClock = "gm.clock"
**.vector-recording = true
**.clock.timeChanged.result-recording-modes = +vector
**.incomingPacketLengths.result-recording-modes = sum
**.outgoingPacketLengths.result-recording-modes = sum
**.droppedPacketLengths.result-recording-modes = sum
**.droppedPacketLengthsQueueOverflow.result-recording-modes = sum
**.incomingPackets.result-recording-modes = count
**.outgoingPackets.result-recording-modes = count
**.droppedPacketsQueueOverflow.result-recording-modes = count
**.passedUpPk.result-recording-modes = count
**.droppedPkBadChecksum.result-recording-modes = count
**.droppedPkWrongPort.result-recording-modes = count
**.packetSent.result-recording-modes = count
**.packetReceived.result-recording-modes = count
**.dataRate.result-recording-modes = -
**.droppedDataRate.result-recording-modes = -
**.incomingDataRate.result-recording-modes = -
**.outgoingDataRate.result-recording-modes = -
**.interpacketGap.result-recording-modes = -
**.packetJitter.result-recording-modes = -
**.packetDelayVariation.result-recording-modes = -
**.packetDelayDifferenceToMean.result-recording-modes = -
**.meanBitLifeTimePerPacket.result-recording-modes = -
**.queueingTime.result-recording-modes = -
**.throughput.result-recording-modes = -
**.transmissionTime.result-recording-modes = -
**.transmitting.result-recording-modes = -
**.utilization.result-recording-modes = -
**.receptionTime.result-recording-modes = -
**.localTime.result-recording-modes = -
**.packetLengths.result-recording-modes = -

# --- The lever: queue capacity swept across 3 values in one run ---
*.sw*.eth[*].macLayer.queue.typename = "DropTailQueue"
*.sw*.eth[*].macLayer.queue.packetCapacity = ${cap = 5, 20, 80}

# Result file names carry the iteration variable so each run is distinguishable.
output-vector-file = ${resultdir}/${configname}-cap=${cap}.vec
output-scalar-file = ${resultdir}/${configname}-cap=${cap}.sca

# --- Background UDP traffic converging on coreClient (same as M3) ---
*.clientsA[0].numApps = 1
*.clientsA[0].app[0].typename = "UdpSourceApp"
*.clientsA[0].app[0].io.destAddress = "coreClient"
*.clientsA[0].app[0].io.destPort = 2000
*.clientsA[0].app[0].source.packetLength = 1000B - 54B
*.clientsA[0].app[0].source.productionInterval = exponential(160us)

*.clientsB[0].numApps = 1
*.clientsB[0].app[0].typename = "UdpSourceApp"
*.clientsB[0].app[0].io.destAddress = "coreClient"
*.clientsB[0].app[0].io.destPort = 2001
*.clientsB[0].app[0].source.packetLength = 1000B - 54B
*.clientsB[0].app[0].source.productionInterval = exponential(160us)

*.clientsC[0].numApps = 1
*.clientsC[0].app[0].typename = "UdpSourceApp"
*.clientsC[0].app[0].io.destAddress = "coreClient"
*.clientsC[0].app[0].io.destPort = 2002
*.clientsC[0].app[0].source.packetLength = 1000B - 54B
*.clientsC[0].app[0].source.productionInterval = exponential(160us)

*.coreClient.numApps = 3
*.coreClient.app[0].typename = "UdpSinkApp"
*.coreClient.app[0].io.localPort = 2000
*.coreClient.app[1].typename = "UdpSinkApp"
*.coreClient.app[1].io.localPort = 2001
*.coreClient.app[2].typename = "UdpSinkApp"
*.coreClient.app[2].io.localPort = 2002
